Conversion/opendss_conversion/dss_files/net_3_Urban_HPK11/04_MV_Lines.dss
New Line.mv_f0_l0 bus1=mv_f0_n585.1.2.3 bus2=mv_f0_n458.1.2.3 phases=3 length=0.015967 units=km linecode=lc_2-3ph enabled=true
New Line.mv_f0_l1 bus1=mv_f0_n586.1.2.3 bus2=mv_f0_n585.1.2.3 phases=3 length=0.011087 units=km linecode=lc_2-3ph enabled=true
New Line.mv_f0_l2 bus1=mv_f0_n458.1.2.3 bus2=mv_f0_n460.1.2.3 phases=3 length=0.049152 units=km linecode=lc_2-3ph enabled=true
New Line.mv_f0_l3 bus1=mv_f0_n328.1.2.3 bus2=mv_f0_n306.1.2.3 phases=3 length=0.024522 units=km linecode=lc_183-3ph enabled=true
New Line.mv_f0_l4 bus1=mv_f0_n390.1.2.3 bus2=mv_f0_n461.1.2.3 phases=3 length=0.038364 units=km linecode=lc_2-3ph enabled=true
New Line.mv_f0_l5 bus1=mv_f0_n396.1.2.3 bus2=mv_f0_n264.1.2.3 phases=3 length=0.049147 units=km linecode=lc_2-3ph enabled=true
New Line.mv_f0_l6 bus1=mv_f0_n309.1.2.3 bus2=mv_f0_n357.1.2.3 phases=3 length=0.051224 units=km linecode=lc_183-3ph enabled=true
New Line.mv_f0_l7 bus1=mv_f0_n517.1.2.3 bus2=mv_f0_n582.1.2.3 phases=3 length=0.003734 units=km linecode=lc_2-3ph enabled=true
New Line.mv_f0_l8 bus1=mv_f0_n127.1.2.3 bus2=mv_f0_n517.1.2.3 phases=3 length=0.040223 units=km linecode=lc_2-3ph enabled=true
New Line.mv_f0_l9 bus1=mv_f0_n590.1.2.3 bus2=mv_f0_n589.1.2.3 phases=3 length=0.011326 units=km linecode=lc_2-3ph enabled=true
New Line.mv_f0_l10 bus1=mv_f0_n306.1.2.3 bus2=mv_f0_n314.1.2.3 phases=3 length=0.033461 units=km linecode=lc_183-3ph enabled=true
New Line.mv_f0_l11 bus1=mv_f0_n519.1.2.3 bus2=mv_f0_n474.1.2.3 phases=3 length=0.022385 units=km linecode=lc_2-3ph enabled=true
New Line.mv_f0_l12 bus1=mv_f0_n582.1.2.3 bus2=mv_f0_n519.1.2.3 phases=3 length=0.002272 units=km linecode=lc_2-3ph enabled=true
New Line.mv_f0_l13 bus1=mv_f0_n49.1.2.3 bus2=mv_f0_n516.1.2.3 phases=3 length=0.024834 units=km linecode=lc_2-3ph enabled=true
New Line.mv_f0_l14 bus1=mv_f0_n393.1.2.3 bus2=mv_f0_n594.1.2.3 phases=3 length=0.042716 units=km linecode=lc_183-3ph enabled=true
New Line.mv_f0_l15 bus1=mv_f0_n320.1.2.3 bus2=mv_f0_n309.1.2.3 phases=3 length=0.05022 units=km linecode=lc_183-3ph enabled=true
New Line.mv_f0_l16 bus1=mv_f0_n408.1.2.3 bus2=mv_f0_n54.1.2.3 phases=3 length=0.028695 units=km linecode=lc_2-3ph enabled=true
New Line.mv_f0_l17 bus1=mv_f0_n593.1.2.3 bus2=mv_f0_n394.1.2.3 phases=3 length=0.047606 units=km linecode=lc_183-3ph enabled=true
New Line.mv_f0_l18 bus1=mv_f0_n314.1.2.3 bus2=mv_f0_n323.1.2.3 phases=3 length=0.053439 units=km linecode=lc_183-3ph enabled=true
New Line.mv_f0_l19 bus1=mv_f0_n54.1.2.3 bus2=mv_f0_n57.1.2.3 phases=3 length=0.051054 units=km linecode=lc_2-3ph enabled=true
New Line.mv_f0_l20 bus1=mv_f0_n394.1.2.3 bus2=mv_f0_n397.1.2.3 phases=3 length=0.042461 units=km linecode=lc_183-3ph enabled=true
New Line.mv_f0_l21 bus1=mv_f0_n397.1.2.3 bus2=mv_f0_n393.1.2.3 phases=3 length=0.045189 units=km linecode=lc_183-3ph enabled=true
New Line.mv_f0_l22 bus1=mv_f0_n434.1.2.3 bus2=mv_f0_n300.1.2.3 phases=3 length=0.104071 units=km linecode=lc_26-3ph enabled=true
New Line.mv_f0_l23 bus1=mv_f0_n300.1.2.3 bus2=mv_f0_n236.1.2.3 phases=3 length=0.018614 units=km linecode=lc_26-3ph enabled=true
New Line.mv_f0_l24 bus1=mv_f0_n330.1.2.3 bus2=mv_f0_n320.1.2.3 phases=3 length=0.052308 units=km linecode=lc_183-3ph enabled=true
New Line.mv_f0_l25 bus1=mv_f0_n323.1.2.3 bus2=mv_f0_n330.1.2.3 phases=3 length=0.017719 units=km linecode=lc_183-3ph enabled=true
New Line.mv_f0_l26 bus1=mv_f0_n387.1.2.3 bus2=mv_f0_n202.1.2.3 phases=3 length=0.000379 units=km linecode=lc_249-3ph enabled=true
New Line.mv_f0_l27 bus1=mv_f0_n59.1.2.3 bus2=mv_f0_n49.1.2.3 phases=3 length=0.078713 units=km linecode=lc_2-3ph enabled=true
New Line.mv_f0_l28 bus1=mv_f0_n57.1.2.3 bus2=mv_f0_n61.1.2.3 phases=3 length=0.027372 units=km linecode=lc_2-3ph enabled=true
New Line.mv_f0_l29 bus1=mv_f0_n351.1.2.3 bus2=mv_f0_n333.1.2.3 phases=3 length=0.029521 units=km linecode=lc_183-3ph enabled=true
New Line.mv_f0_l30 bus1=mv_f0_n333.1.2.3 bus2=mv_f0_n328.1.2.3 phases=3 length=0.031653 units=km linecode=lc_183-3ph enabled=true
New Line.mv_f0_l31 bus1=mv_f0_n61.1.2.3 bus2=mv_f0_n64.1.2.3 phases=3 length=0.046745 units=km linecode=lc_2-3ph enabled=true
New Line.mv_f0_l32 bus1=mv_f0_n363.1.2.3 bus2=mv_f0_n581.1.2.3 phases=3 length=0.031228 units=km linecode=lc_183-3ph enabled=true
New Line.mv_f0_l33 bus1=mv_f0_n64.1.2.3 bus2=mv_f0_n67.1.2.3 phases=3 length=0.047414 units=km linecode=lc_2-3ph enabled=true
New Line.mv_f0_l34 bus1=mv_f0_n67.1.2.3 bus2=mv_f0_n59.1.2.3 phases=3 length=0.062173 units=km linecode=lc_2-3ph enabled=true
New Line.mv_f0_l35 bus1=mv_f0_n342.1.2.3 bus2=mv_f0_n364.1.2.3 phases=3 length=0.045475 units=km linecode=lc_183-3ph enabled=true
New Line.mv_f0_l36 bus1=mv_f0_n328.1.2.3 bus2=mv_f0_n345.1.2.3 phases=3 length=0.049213 units=km linecode=lc_183-3ph enabled=true
New Line.mv_f0_l37 bus1=mv_f0_n349.1.2.3 bus2=mv_f0_n342.1.2.3 phases=3 length=0.034465 units=km linecode=lc_183-3ph enabled=true
New Line.mv_f0_l38 bus1=mv_f0_n587.1.2.3 bus2=mv_f0_n531.1.2.3 phases=3 length=0.004628 units=km linecode=lc_2-3ph enabled=true
New Line.mv_f0_l39 bus1=mv_f0_n436.1.2.3 bus2=mv_f0_n197.1.2.3 phases=3 length=0.004763 units=km linecode=lc_2-3ph enabled=true
New Line.mv_f0_l40 bus1=mv_f0_n531.1.2.3 bus2=mv_f0_n141.1.2.3 phases=3 length=0.044455 units=km linecode=lc_2-3ph enabled=true
New Line.mv_f0_l41 bus1=mv_f0_n345.1.2.3 bus2=mv_f0_n352.1.2.3 phases=3 length=0.033915 units=km linecode=lc_183-3ph enabled=true
New Line.mv_f0_l42 bus1=mv_f0_n352.1.2.3 bus2=mv_f0_n349.1.2.3 phases=3 length=0.02788 units=km linecode=lc_183-3ph enabled=true
New Line.mv_f0_l43 bus1=mv_f0_n588.1.2.3 bus2=mv_f0_n375.1.2.3 phases=3 length=0.0019 units=km linecode=lc_2-3ph enabled=true
New Line.mv_f0_l44 bus1=mv_f0_n164.1.2.3 bus2=mv_f0_n336.1.2.3 phases=3 length=0.046644 units=km linecode=lc_2-3ph enabled=true
New Line.mv_f0_l45 bus1=mv_f0_n377.1.2.3 bus2=mv_f0_n361.1.2.3 phases=3 length=0.033692 units=km linecode=lc_183-3ph enabled=true
New Line.mv_f0_l46 bus1=mv_f0_n361.1.2.3 bus2=mv_f0_n277.1.2.3 phases=3 length=0.03941 units=km linecode=lc_183-3ph enabled=true
New Line.mv_f0_l47 bus1=mv_f0_n44.1.2.3 bus2=mv_f0_n171.1.2.3 phases=3 length=0.02737 units=km linecode=lc_2-3ph enabled=true
New Line.mv_f0_l48 bus1=mv_f0_n377.1.2.3 bus2=mv_f0_n368.1.2.3 phases=3 length=0.031813 units=km linecode=lc_183-3ph enabled=true
New Line.mv_f0_l49 bus1=mv_f0_n371.1.2.3 bus2=mv_f0_n381.1.2.3 phases=3 length=0.034661 units=km linecode=lc_183-3ph enabled=true
New Line.mv_f0_l50 bus1=mv_f0_n368.1.2.3 bus2=mv_f0_n371.1.2.3 phases=3 length=0.032973 units=km linecode=lc_183-3ph enabled=true
New Line.mv_f0_l51 bus1=mv_f0_n409.1.2.3 bus2=mv_f0_n87.1.2.3 phases=3 length=0.006918 units=km linecode=lc_2-3ph enabled=true
New Line.mv_f0_l52 bus1=mv_f0_n86.1.2.3 bus2=mv_f0_n412.1.2.3 phases=3 length=0.0753 units=km linecode=lc_2-3ph enabled=true
New Line.mv_f0_l53 bus1=mv_f0_n414.1.2.3 bus2=mv_f0_n409.1.2.3 phases=3 length=0.076096 units=km linecode=lc_2-3ph enabled=true
New Line.mv_f0_l54 bus1=mv_f0_n412.1.2.3 bus2=mv_f0_n418.1.2.3 phases=3 length=0.038139 units=km linecode=lc_2-3ph enabled=true
New Line.mv_f0_l55 bus1=mv_f0_n420.1.2.3 bus2=mv_f0_n414.1.2.3 phases=3 length=0.041074 units=km linecode=lc_2-3ph enabled=true
New Line.mv_f0_l56 bus1=mv_f0_n425.1.2.3 bus2=mv_f0_n420.1.2.3 phases=3 length=0.046328 units=km linecode=lc_2-3ph enabled=true
New Line.mv_f0_l57 bus1=mv_f0_n423.1.2.3 bus2=mv_f0_n427.1.2.3 phases=3 length=0.033605 units=km linecode=lc_2-3ph enabled=true
New Line.mv_f0_l58 bus1=mv_f0_n427.1.2.3 bus2=mv_f0_n430.1.2.3 phases=3 length=0.033257 units=km linecode=lc_2-3ph enabled=true
New Line.mv_f0_l59 bus1=mv_f0_n432.1.2.3 bus2=mv_f0_n425.1.2.3 phases=3 length=0.041455 units=km linecode=lc_2-3ph enabled=true
New Line.mv_f0_l60 bus1=mv_f0_n430.1.2.3 bus2=mv_f0_n435.1.2.3 phases=3 length=0.057838 units=km linecode=lc_2-3ph enabled=true
New Line.mv_f0_l61 bus1=mv_f0_n518.1.2.3 bus2=mv_f0_n114.1.2.3 phases=3 length=0.038207 units=km linecode=lc_2-3ph enabled=true
New Line.mv_f0_l62 bus1=mv_f0_n435.1.2.3 bus2=mv_f0_n432.1.2.3 phases=3 length=0.027189 units=km linecode=lc_2-3ph enabled=true
New Line.mv_f0_l63 bus1=mv_f0_n140.1.2.3 bus2=mv_f0_n293.1.2.3 phases=3 length=0.015936 units=km linecode=lc_2-3ph enabled=true
New Line.mv_f0_l64 bus1=mv_f0_n120.1.2.3 bus2=mv_f0_n355.1.2.3 phases=3 length=0.04522 units=km linecode=lc_2-3ph enabled=true
New Line.mv_f0_l65 bus1=mv_f0_n98.1.2.3 bus2=mv_f0_n438.1.2.3 phases=3 length=0.007843 units=km linecode=lc_2-3ph enabled=true
New Line.mv_f0_l66 bus1=mv_f0_n145.1.2.3 bus2=mv_f0_n140.1.2.3 phases=3 length=0.014876 units=km linecode=lc_2-3ph enabled=true
New Line.mv_f0_l67 bus1=mv_f0_n438.1.2.3 bus2=mv_f0_n441.1.2.3 phases=3 length=0.039199 units=km linecode=lc_2-3ph enabled=true
New Line.mv_f0_l68 bus1=mv_f0_n114.1.2.3 bus2=mv_f0_n126.1.2.3 phases=3 length=0.020897 units=km linecode=lc_2-3ph enabled=true
New Line.mv_f0_l69 bus1=mv_f0_n31.1.2.3 bus2=mv_f0_n147.1.2.3 phases=3 length=0.046734 units=km linecode=lc_2-3ph enabled=true
New Line.mv_f0_l70 bus1=mv_f0_n442.1.2.3 bus2=mv_f0_n44.1.2.3 phases=3 length=0.072255 units=km linecode=lc_2-3ph enabled=true
New Line.mv_f0_l71 bus1=mv_f0_n151.1.2.3 bus2=mv_f0_n145.1.2.3 phases=3 length=0.02584 units=km linecode=lc_2-3ph enabled=true
New Line.mv_f0_l72 bus1=mv_f0_n231.1.2.3 bus2=mv_f0_n110.1.2.3 phases=3 length=0.033328 units=km linecode=lc_2-3ph enabled=true
New Line.mv_f0_l73 bus1=mv_f0_n441.1.2.3 bus2=mv_f0_n444.1.2.3 phases=3 length=0.056841 units=km linecode=lc_2-3ph enabled=true
New Line.mv_f0_l74 bus1=mv_f0_n211.1.2.3 bus2=mv_f0_n231.1.2.3 phases=3 length=0.005764 units=km linecode=lc_2-3ph enabled=true
New Line.mv_f0_l75 bus1=mv_f0_n154.1.2.3 bus2=mv_f0_n151.1.2.3 phases=3 length=0.040593 units=km linecode=lc_2-3ph enabled=true
New Line.mv_f0_l76 bus1=mv_f0_n234.1.2.3 bus2=mv_f0_n211.1.2.3 phases=3 length=0.001569 units=km linecode=lc_2-3ph enabled=true
New Line.mv_f0_l77 bus1=mv_f0_n575.1.2.3 bus2=mv_f0_n234.1.2.3 phases=3 length=0.056262 units=km linecode=lc_2-3ph enabled=true
New Line.mv_f0_l78 bus1=mv_f0_n447.1.2.3 bus2=mv_f0_n442.1.2.3 phases=3 length=0.044436 units=km linecode=lc_2-3ph enabled=true
New Line.mv_f0_l79 bus1=mv_f0_n147.1.2.3 bus2=mv_f0_n157.1.2.3 phases=3 length=0.055675 units=km linecode=lc_2-3ph enabled=true
New Line.mv_f0_l80 bus1=mv_f0_n444.1.2.3 bus2=mv_f0_n448.1.2.3 phases=3 length=0.039996 units=km linecode=lc_2-3ph enabled=true
New Line.mv_f0_l81 bus1=mv_f0_n157.1.2.3 bus2=mv_f0_n159.1.2.3 phases=3 length=0.02476 units=km linecode=lc_2-3ph enabled=true
New Line.mv_f0_l82 bus1=mv_f0_n449.1.2.3 bus2=mv_f0_n447.1.2.3 phases=3 length=0.039503 units=km linecode=lc_2-3ph enabled=true
New Line.mv_f0_l83 bus1=mv_f0_n159.1.2.3 bus2=mv_f0_n161.1.2.3 phases=3 length=0.033346 units=km linecode=lc_2-3ph enabled=true
New Line.mv_f0_l84 bus1=mv_f0_n161.1.2.3 bus2=mv_f0_n154.1.2.3 phases=3 length=0.061396 units=km linecode=lc_2-3ph enabled=true
New Line.mv_f0_l85 bus1=mv_f0_n448.1.2.3 bus2=mv_f0_n451.1.2.3 phases=3 length=0.043017 units=km linecode=lc_2-3ph enabled=true
New Line.mv_f0_l86 bus1=mv_f0_n451.1.2.3 bus2=mv_f0_n449.1.2.3 phases=3 length=0.057998 units=km linecode=lc_2-3ph enabled=true
New Line.mv_f0_l87 bus1=mv_f0_n169.1.2.3 bus2=mv_f0_n31.1.2.3 phases=3 length=0.067121 units=km linecode=lc_2-3ph enabled=true
New Line.mv_f0_l88 bus1=mv_f0_n403.1.2.3 bus2=mv_f0_n169.1.2.3 phases=3 length=0.094006 units=km linecode=lc_2-3ph enabled=true
New Line.mv_f0_l89 bus1=mv_f0_n522.1.2.3 bus2=mv_f0_n134.1.2.3 phases=3 length=0.006423 units=km linecode=lc_2-3ph enabled=true
New Line.mv_f0_l90 bus1=mv_f0_n139.1.2.3 bus2=mv_f0_n179.1.2.3 phases=3 length=0.021228 units=km linecode=lc_2-3ph enabled=true
New Line.mv_f0_l91 bus1=mv_f0_n173.1.2.3 bus2=mv_f0_n400.1.2.3 phases=3 length=0.051304 units=km linecode=lc_2-3ph enabled=true
New Line.mv_f0_l92 bus1=mv_f0_n287.1.2.3 bus2=mv_f0_n173.1.2.3 phases=3 length=0.019454 units=km linecode=lc_2-3ph enabled=true
New Line.mv_f0_l93 bus1=mv_f0_n179.1.2.3 bus2=mv_f0_n182.1.2.3 phases=3 length=0.036767 units=km linecode=lc_2-3ph enabled=true
New Line.mv_f0_l94 bus1=mv_f0_n445.1.2.3 bus2=mv_f0_n362.1.2.3 phases=3 length=0.050324 units=km linecode=lc_42-3ph enabled=true
New Line.mv_f0_l95 bus1=mv_f0_n545.1.2.3 bus2=mv_f0_n43.1.2.3 phases=3 length=0.007908 units=km linecode=lc_29-3ph enabled=true
New Line.mv_f0_l96 bus1=mv_f0_n353.1.2.3 bus2=mv_f0_n445.1.2.3 phases=3 length=0.000632 units=km linecode=lc_42-3ph enabled=true
New Line.mv_f0_l97 bus1=mv_f0_n298.1.2.3 bus2=mv_f0_n506.1.2.3 phases=3 length=0.043067 units=km linecode=lc_2-3ph enabled=true
New Line.mv_f0_l98 bus1=mv_f0_n508.1.2.3 bus2=mv_f0_n298.1.2.3 phases=3 length=0.010666 units=km linecode=lc_2-3ph enabled=true
New Line.mv_f0_l99 bus1=mv_f0_n182.1.2.3 bus2=mv_f0_n183.1.2.3 phases=3 length=0.039127 units=km linecode=lc_2-3ph enabled=true
New Line.mv_f0_l100 bus1=mv_f0_n184.1.2.3 bus2=mv_f0_n279.1.2.3 phases=3 length=0.116236 units=km linecode=lc_2-3ph enabled=true
New Line.mv_f0_l101 bus1=mv_f0_n51.1.2.3 bus2=mv_f0_n385.1.2.3 phases=3 length=0.052791 units=km linecode=lc_29-3ph enabled=true
New Line.mv_f0_l102 bus1=mv_f0_n183.1.2.3 bus2=mv_f0_n187.1.2.3 phases=3 length=0.053107 units=km linecode=lc_2-3ph enabled=true
New Line.mv_f0_l103 bus1=mv_f0_n315.1.2.3 bus2=mv_f0_n310.1.2.3 phases=3 length=0.029148 units=km linecode=lc_183-3ph enabled=true
New Line.mv_f0_l104 bus1=mv_f0_n191.1.2.3 bus2=mv_f0_n184.1.2.3 phases=3 length=0.038684 units=km linecode=lc_2-3ph enabled=true
New Line.mv_f0_l105 bus1=mv_f0_n196.1.2.3 bus2=mv_f0_n55.1.2.3 phases=3 length=0.017073 units=km linecode=lc_2-3ph enabled=true
New Line.mv_f0_l106 bus1=mv_f0_n47.1.2.3 bus2=mv_f0_n382.1.2.3 phases=3 length=0.062896 units=km linecode=lc_29-3ph enabled=true
New Line.mv_f0_l107 bus1=mv_f0_n382.1.2.3 bus2=mv_f0_n51.1.2.3 phases=3 length=0.000252 units=km linecode=lc_29-3ph enabled=true
New Line.mv_f0_l108 bus1=mv_f0_n494.1.2.3 bus2=mv_f0_n322.1.2.3 phases=3 length=0.031336 units=km linecode=lc_183-3ph enabled=true
New Line.mv_f0_l109 bus1=mv_f0_n58.1.2.3 bus2=mv_f0_n545.1.2.3 phases=3 length=0.067385 units=km linecode=lc_2-3ph enabled=true
New Line.mv_f0_l110 bus1=mv_f0_n187.1.2.3 bus2=mv_f0_n192.1.2.3 phases=3 length=0.035403 units=km linecode=lc_2-3ph enabled=true
New Line.mv_f0_l111 bus1=mv_f0_n324.1.2.3 bus2=mv_f0_n315.1.2.3 phases=3 length=0.030365 units=km linecode=lc_183-3ph enabled=true
New Line.mv_f0_l112 bus1=mv_f0_n193.1.2.3 bus2=mv_f0_n191.1.2.3 phases=3 length=0.033835 units=km linecode=lc_2-3ph enabled=true
New Line.mv_f0_l113 bus1=mv_f0_n192.1.2.3 bus2=mv_f0_n193.1.2.3 phases=3 length=0.064535 units=km linecode=lc_2-3ph enabled=true
New Line.mv_f0_l114 bus1=mv_f0_n55.1.2.3 bus2=mv_f0_n60.1.2.3 phases=3 length=0.056576 units=km linecode=lc_2-3ph enabled=true
New Line.mv_f0_l115 bus1=mv_f0_n332.1.2.3 bus2=mv_f0_n324.1.2.3 phases=3 length=0.031197 units=km linecode=lc_183-3ph enabled=true
New Line.mv_f0_l116 bus1=mv_f0_n322.1.2.3 bus2=mv_f0_n332.1.2.3 phases=3 length=0.032312 units=km linecode=lc_183-3ph enabled=true
New Line.mv_f0_l117 bus1=mv_f0_n60.1.2.3 bus2=mv_f0_n63.1.2.3 phases=3 length=0.043389 units=km linecode=lc_2-3ph enabled=true
New Line.mv_f0_l118 bus1=mv_f0_n63.1.2.3 bus2=mv_f0_n66.1.2.3 phases=3 length=0.0313 units=km linecode=lc_2-3ph enabled=true
New Line.mv_f0_l119 bus1=mv_f0_n547.1.2.3 bus2=mv_f0_n574.1.2.3 phases=3 length=0.000379 units=km linecode=lc_2-3ph enabled=true
New Line.mv_f0_l120 bus1=mv_f0_n577.1.2.3 bus2=mv_f0_n547.1.2.3 phases=3 length=0.145797 units=km linecode=lc_2-3ph enabled=true
New Line.mv_f0_l121 bus1=mv_f0_n70.1.2.3 bus2=mv_f0_n58.1.2.3 phases=3 length=0.083148 units=km linecode=lc_2-3ph enabled=true
New Line.mv_f0_l122 bus1=mv_f0_n457.1.2.3 bus2=mv_f0_n38.1.2.3 phases=3 length=0.039502 units=km linecode=lc_183-3ph enabled=true
New Line.mv_f0_l123 bus1=mv_f0_n507.1.2.3 bus2=mv_f0_n68.1.2.3 phases=3 length=0.081167 units=km linecode=lc_2-3ph enabled=true
New Line.mv_f0_l124 bus1=mv_f0_n68.1.2.3 bus2=mv_f0_n497.1.2.3 phases=3 length=0.000377 units=km linecode=lc_2-3ph enabled=true
New Line.mv_f0_l125 bus1=mv_f0_n40.1.2.3 bus2=mv_f0_n268.1.2.3 phases=3 length=0.042624 units=km linecode=lc_183-3ph enabled=true
New Line.mv_f0_l126 bus1=mv_f0_n66.1.2.3 bus2=mv_f0_n71.1.2.3 phases=3 length=0.075011 units=km linecode=lc_2-3ph enabled=true
New Line.mv_f0_l127 bus1=mv_f0_n499.1.2.3 bus2=mv_f0_n337.1.2.3 phases=3 length=0.026844 units=km linecode=lc_183-3ph enabled=true
New Line.mv_f0_l128 bus1=mv_f0_n42.1.2.3 bus2=mv_f0_n40.1.2.3 phases=3 length=0.032484 units=km linecode=lc_183-3ph enabled=true
New Line.mv_f0_l129 bus1=mv_f0_n75.1.2.3 bus2=mv_f0_n70.1.2.3 phases=3 length=0.100053 units=km linecode=lc_2-3ph enabled=true
New Line.mv_f0_l130 bus1=mv_f0_n38.1.2.3 bus2=mv_f0_n42.1.2.3 phases=3 length=0.030918 units=km linecode=lc_183-3ph enabled=true
New Line.mv_f0_l131 bus1=mv_f0_n473.1.2.3 bus2=mv_f0_n487.1.2.3 phases=3 length=0.04878 units=km linecode=lc_183-3ph enabled=true
New Line.mv_f0_l132 bus1=mv_f0_n340.1.2.3 bus2=mv_f0_n335.1.2.3 phases=3 length=0.028375 units=km linecode=lc_183-3ph enabled=true
New Line.mv_f0_l133 bus1=mv_f0_n77.1.2.3 bus2=mv_f0_n75.1.2.3 phases=3 length=0.042799 units=km linecode=lc_2-3ph enabled=true
New Line.mv_f0_l134 bus1=mv_f0_n475.1.2.3 bus2=mv_f0_n477.1.2.3 phases=3 length=0.019246 units=km linecode=lc_183-3ph enabled=true
New Line.mv_f0_l135 bus1=mv_f0_n337.1.2.3 bus2=mv_f0_n343.1.2.3 phases=3 length=0.027218 units=km linecode=lc_183-3ph enabled=true
New Line.mv_f0_l136 bus1=mv_f0_n346.1.2.3 bus2=mv_f0_n340.1.2.3 phases=3 length=0.034653 units=km linecode=lc_183-3ph enabled=true
New Line.mv_f0_l137 bus1=mv_f0_n261.1.2.3 bus2=mv_f0_n257.1.2.3 phases=3 length=0.018507 units=km linecode=lc_2-3ph enabled=true
New Line.mv_f0_l138 bus1=mv_f0_n343.1.2.3 bus2=mv_f0_n346.1.2.3 phases=3 length=0.030479 units=km linecode=lc_183-3ph enabled=true
New Line.mv_f0_l139 bus1=mv_f0_n520.1.2.3 bus2=mv_f0_n535.1.2.3 phases=3 length=0.007844 units=km linecode=lc_2-3ph enabled=true
New Line.mv_f0_l140 bus1=mv_f0_n341.1.2.3 bus2=mv_f0_n313.1.2.3 phases=3 length=0.040151 units=km linecode=lc_2-3ph enabled=true
New Line.mv_f0_l141 bus1=mv_f0_n84.1.2.3 bus2=mv_f0_n111.1.2.3 phases=3 length=0.000377 units=km linecode=lc_2-3ph enabled=true
New Line.mv_f0_l142 bus1=mv_f0_n113.1.2.3 bus2=mv_f0_n84.1.2.3 phases=3 length=0.034845 units=km linecode=lc_2-3ph enabled=true
New Line.mv_f0_l143 bus1=mv_f0_n321.1.2.3 bus2=mv_f0_n344.1.2.3 phases=3 length=0.046018 units=km linecode=lc_2-3ph enabled=true
New Line.mv_f0_l144 bus1=mv_f0_n413.1.2.3 bus2=mv_f0_n104.1.2.3 phases=3 length=0.003147 units=km linecode=lc_2-3ph enabled=true
New Line.mv_f0_l145 bus1=mv_f0_n1.1.2.3 bus2=mv_f0_n415.1.2.3 phases=3 length=0.029602 units=km linecode=lc_2-3ph enabled=true
New Line.mv_f0_l146 bus1=mv_f0_n350.1.2.3 bus2=mv_f0_n360.1.2.3 phases=3 length=0.078903 units=km linecode=lc_2-3ph enabled=true
New Line.mv_f0_l147 bus1=mv_f0_n554.1.2.3 bus2=mv_f0_n470.1.2.3 phases=3 length=0.019003 units=km linecode=lc_2-3ph enabled=true
New Line.mv_f0_l148 bus1=mv_f0_n174.1.2.3 bus2=mv_f0_n353.1.2.3 phases=3 length=0.033241 units=km linecode=lc_42-3ph enabled=true
New Line.mv_f0_l149 bus1=mv_f0_n555.1.2.3 bus2=mv_f0_n554.1.2.3 phases=3 length=0.088121 units=km linecode=lc_2-3ph enabled=true
New Line.mv_f0_l150 bus1=mv_f0_n358.1.2.3 bus2=mv_f0_n540.1.2.3 phases=3 length=0.084122 units=km linecode=lc_42-3ph enabled=true
New Line.mv_f0_l151 bus1=mv_f0_n170.1.2.3 bus2=mv_f0_n555.1.2.3 phases=3 length=0.080339 units=km linecode=lc_2-3ph enabled=true
New Line.mv_f0_l152 bus1=mv_f0_n104.1.2.3 bus2=mv_f0_n426.1.2.3 phases=3 length=0.003188 units=km linecode=lc_2-3ph enabled=true
New Line.mv_f0_l153 bus1=mv_f0_n558.1.2.3 bus2=mv_f0_n303.1.2.3 phases=3 length=0.014085 units=km linecode=lc_2-3ph enabled=true
New Line.mv_f0_l154 bus1=mv_f0_n428.1.2.3 bus2=mv_f0_n118.1.2.3 phases=3 length=0.040854 units=km linecode=lc_2-3ph enabled=true
New Line.mv_f0_l155 bus1=mv_f0_n118.1.2.3 bus2=mv_f0_n560.1.2.3 phases=3 length=0.049898 units=km linecode=lc_2-3ph enabled=true
New Line.mv_f0_l156 bus1=mv_f0_n560.1.2.3 bus2=mv_f0_n558.1.2.3 phases=3 length=0.118003 units=km linecode=lc_2-3ph enabled=true
New Line.mv_f0_l157 bus1=mv_f0_n365.1.2.3 bus2=mv_f0_n358.1.2.3 phases=3 length=0.035002 units=km linecode=lc_42-3ph enabled=true
New Line.mv_f0_l158 bus1=mv_f0_n367.1.2.3 bus2=mv_f0_n365.1.2.3 phases=3 length=0.035006 units=km linecode=lc_42-3ph enabled=true
New Line.mv_f0_l159 bus1=mv_f0_n128.1.2.3 bus2=mv_f0_n131.1.2.3 phases=3 length=0.000998 units=km linecode=lc_249-3ph enabled=true
New Line.mv_f0_l160 bus1=mv_f0_n369.1.2.3 bus2=mv_f0_n367.1.2.3 phases=3 length=0.066224 units=km linecode=lc_42-3ph enabled=true
New Line.mv_f0_l161 bus1=mv_f0_n362.1.2.3 bus2=mv_f0_n369.1.2.3 phases=3 length=0.104592 units=km linecode=lc_42-3ph enabled=true
New Line.mv_f0_l162 bus1=mv_f0_n443.1.2.3 bus2=mv_f0_n65.1.2.3 phases=3 length=0.042987 units=km linecode=lc_183-3ph enabled=true
New Line.mv_f0_l163 bus1=mv_f0_n325.1.2.3 bus2=mv_f0_n563.1.2.3 phases=3 length=0.019906 units=km linecode=lc_2-3ph enabled=true
New Line.mv_f0_l164 bus1=mv_f0_n69.1.2.3 bus2=mv_f0_n377.1.2.3 phases=3 length=0.04306 units=km linecode=lc_183-3ph enabled=true
New Line.mv_f0_l165 bus1=mv_f0_n141.1.2.3 bus2=mv_f0_n135.1.2.3 phases=3 length=0.008943 units=km linecode=lc_2-3ph enabled=true
New Line.mv_f0_l166 bus1=mv_f0_n72.1.2.3 bus2=mv_f0_n69.1.2.3 phases=3 length=0.036358 units=km linecode=lc_183-3ph enabled=true
New Line.mv_f0_l167 bus1=mv_f0_n65.1.2.3 bus2=mv_f0_n74.1.2.3 phases=3 length=0.044366 units=km linecode=lc_183-3ph enabled=true
New Line.mv_f0_l168 bus1=mv_f0_n485.1.2.3 bus2=mv_f0_n133.1.2.3 phases=3 length=0.025794 units=km linecode=lc_2-3ph enabled=true
New Line.mv_f0_l169 bus1=mv_f0_n78.1.2.3 bus2=mv_f0_n72.1.2.3 phases=3 length=0.037343 units=km linecode=lc_183-3ph enabled=true
New Line.mv_f0_l170 bus1=mv_f0_n11.1.2.3 bus2=mv_f0_n122.1.2.3 phases=3 length=0.027767 units=km linecode=lc_2-3ph enabled=true
New Line.mv_f0_l171 bus1=mv_f0_n122.1.2.3 bus2=mv_f0_n10.1.2.3 phases=3 length=0.001 units=km linecode=lc_2-3ph enabled=true
New Line.mv_f0_l172 bus1=mv_f0_n133.1.2.3 bus2=mv_f0_n137.1.2.3 phases=3 length=0.065224 units=km linecode=lc_2-3ph enabled=true
New Line.mv_f0_l173 bus1=mv_f0_n81.1.2.3 bus2=mv_f0_n78.1.2.3 phases=3 length=0.040387 units=km linecode=lc_183-3ph enabled=true
New Line.mv_f0_l174 bus1=mv_f0_n74.1.2.3 bus2=mv_f0_n81.1.2.3 phases=3 length=0.053046 units=km linecode=lc_183-3ph enabled=true
New Line.mv_f0_l175 bus1=mv_f0_n4.1.2.3 bus2=mv_f0_n156.1.2.3 phases=3 length=0.105331 units=km linecode=lc_2-3ph enabled=true
New Line.mv_f0_l176 bus1=mv_f0_n156.1.2.3 bus2=mv_f0_n34.1.2.3 phases=3 length=0.010966 units=km linecode=lc_2-3ph enabled=true
New Line.mv_f0_l177 bus1=mv_f0_n567.1.2.3 bus2=mv_f0_n532.1.2.3 phases=3 length=0.020327 units=km linecode=lc_2-3ph enabled=true
New Line.mv_f0_l178 bus1=mv_f0_n374.1.2.3 bus2=mv_f0_n567.1.2.3 phases=3 length=0.039808 units=km linecode=lc_2-3ph enabled=true
New Line.mv_f0_l179 bus1=mv_f0_n43.1.2.3 bus2=mv_f0_n410.1.2.3 phases=3 length=0.000252 units=km linecode=lc_29-3ph enabled=true
New Line.mv_f0_l180 bus1=mv_f0_n410.1.2.3 bus2=mv_f0_n47.1.2.3 phases=3 length=0.030003 units=km linecode=lc_29-3ph enabled=true
New Line.mv_f0_l181 bus1=mv_f0_n570.1.2.3 bus2=mv_f0_n496.1.2.3 phases=3 length=0.154281 units=km linecode=lc_2-3ph enabled=true
New Line.mv_f0_l182 bus1=mv_f0_n29.1.2.3 bus2=mv_f0_n575.1.2.3 phases=3 length=0.070723 units=km linecode=lc_2-3ph enabled=true
New Line.mv_f0_l183 bus1=mv_f0_n498.1.2.3 bus2=mv_f0_n570.1.2.3 phases=3 length=0.046185 units=km linecode=lc_2-3ph enabled=true
New Line.mv_f0_l184 bus1=mv_f0_n372.1.2.3 bus2=mv_f0_n1.1.2.3 phases=3 length=0.187032 units=km linecode=lc_2-3ph enabled=true
New Line.mv_f0_l185 bus1=mv_f0_n523.1.2.3 bus2=mv_f0_n5.1.2.3 phases=3 length=0.013764 units=km linecode=lc_2-3ph enabled=true
New Line.mv_f0_l186 bus1=mv_f0_n415.1.2.3 bus2=mv_f0_n556.1.2.3 phases=3 length=0.000504 units=km linecode=lc_2-3ph enabled=true
New Line.mv_f0_l187 bus1=mv_f0_n199.1.2.3 bus2=mv_f0_n200.1.2.3 phases=3 length=0.013764 units=km linecode=lc_2-3ph enabled=true
New Line.mv_f0_l188 bus1=mv_f0_n556.1.2.3 bus2=mv_f0_n421.1.2.3 phases=3 length=0.075886 units=km linecode=lc_2-3ph enabled=true
New Line.mv_f0_l189 bus1=mv_f0_n200.1.2.3 bus2=mv_f0_n524.1.2.3 phases=3 length=0.018002 units=km linecode=lc_2-3ph enabled=true
New Line.mv_f0_l190 bus1=mv_f0_n559.1.2.3 bus2=mv_f0_n428.1.2.3 phases=3 length=0.000504 units=km linecode=lc_2-3ph enabled=true
New Line.mv_f0_l191 bus1=mv_f0_n32.1.2.3 bus2=mv_f0_n580.1.2.3 phases=3 length=0.024266 units=km linecode=lc_2-3ph enabled=true
New Line.mv_f0_l192 bus1=mv_f0_n433.1.2.3 bus2=mv_f0_n559.1.2.3 phases=3 length=0.072039 units=km linecode=lc_2-3ph enabled=true
New Line.mv_f0_l193 bus1=mv_f0_n580.1.2.3 bus2=mv_f0_n221.1.2.3 phases=3 length=0.034223 units=km linecode=lc_2-3ph enabled=true
New Line.mv_f0_l194 bus1=mv_f0_n203.1.2.3 bus2=mv_f0_n207.1.2.3 phases=3 length=0.016551 units=km linecode=lc_2-3ph enabled=true
New Line.mv_f0_l195 bus1=mv_f0_n207.1.2.3 bus2=mv_f0_n530.1.2.3 phases=3 length=0.016612 units=km linecode=lc_2-3ph enabled=true
New Line.mv_f0_l196 bus1=mv_f0_n530.1.2.3 bus2=mv_f0_n213.1.2.3 phases=3 length=0.011655 units=km linecode=lc_2-3ph enabled=true
New Line.mv_f0_l197 bus1=mv_f0_n175.1.2.3 bus2=mv_f0_n391.1.2.3 phases=3 length=0.002109 units=km linecode=lc_2-3ph enabled=true
New Line.mv_f0_l198 bus1=mv_f0_n153.1.2.3 bus2=mv_f0_n175.1.2.3 phases=3 length=0.049301 units=km linecode=lc_2-3ph enabled=true
New Line.mv_f0_l199 bus1=mv_f0_n213.1.2.3 bus2=mv_f0_n216.1.2.3 phases=3 length=0.020721 units=km linecode=lc_2-3ph enabled=true
...
